Version 4
SHEET 1 1488 1108
WIRE 208 -96 32 -96
WIRE 400 -96 288 -96
WIRE 32 0 32 -96
WIRE 32 0 -336 0
WIRE 96 0 32 0
WIRE 400 0 400 -96
WIRE 400 0 384 0
WIRE -336 16 -336 0
WIRE 32 16 32 0
WIRE 32 96 32 80
WIRE 544 96 384 96
WIRE 688 96 544 96
WIRE 832 96 688 96
WIRE 912 96 832 96
WIRE -336 112 -336 80
WIRE 544 112 544 96
WIRE 832 112 832 96
WIRE -64 192 -160 192
WIRE 0 192 -64 192
WIRE 96 192 80 192
WIRE 544 192 544 176
WIRE 544 192 384 192
WIRE 688 192 688 176
WIRE 688 192 544 192
WIRE -336 208 -336 176
WIRE -160 208 -160 192
WIRE -64 208 -64 192
WIRE 688 208 688 192
WIRE 832 208 832 176
WIRE 912 208 912 176
WIRE -64 288 -64 272
WIRE 448 288 384 288
WIRE 544 288 448 288
WIRE -160 304 -160 272
WIRE 448 304 448 288
WIRE 688 304 688 288
WIRE 16 384 0 384
WIRE 96 384 80 384
WIRE 400 384 384 384
WIRE -160 400 -160 368
WIRE 448 400 448 368
WIRE 240 448 240 432
FLAG 240 448 0
FLAG 688 304 0
FLAG 832 208 0
FLAG 912 208 0
FLAG 448 400 0
FLAG 400 384 0
FLAG 0 384 0
FLAG 912 96 OUT1
FLAG -336 0 IN
FLAG 544 288 OUT2
FLAG -64 288 0
FLAG -160 400 0
FLAG 32 96 0
FLAG -336 208 0
SYMBOL PowerProducts\\LTC3105 240 192 R0
SYMATTR InstName U1
SYMBOL ind 192 -80 R270
WINDOW 0 32 56 VTop 2
WINDOW 3 5 56 VBottom 2
SYMATTR InstName L1
SYMATTR Value 10µ
SYMATTR SpiceLine Rser=0.35 Rpar=5K
SYMBOL res 672 80 R0
SYMATTR InstName R1
SYMATTR Value 750k
SYMBOL res 672 192 R0
SYMATTR InstName R2
SYMATTR Value 510k
SYMBOL cap 816 112 R0
SYMATTR InstName C1
SYMATTR Value 10µ
SYMBOL cap 432 304 R0
SYMATTR InstName C2
SYMATTR Value 4.7µ
SYMBOL cap 80 368 R90
WINDOW 0 0 32 VBottom 2
WINDOW 3 32 32 VTop 2
SYMATTR InstName C3
SYMATTR Value 1µ
SYMBOL res 96 176 R90
WINDOW 0 0 56 VBottom 2
WINDOW 3 32 56 VTop 2
SYMATTR InstName R3
SYMATTR Value 4.99k
SYMBOL diode -176 208 R0
WINDOW 0 37 8 Left 2
WINDOW 3 22 66 Left 2
SYMATTR InstName D1
SYMATTR Value mra4003t3
SYMBOL diode -176 304 R0
WINDOW 0 33 0 Left 2
WINDOW 3 27 66 Left 2
SYMATTR InstName D2
SYMATTR Value mra4003t3
SYMBOL cap -80 208 R0
WINDOW 0 25 5 Left 2
SYMATTR InstName C4
SYMATTR Value .01µ
SYMBOL cap 16 16 R0
SYMATTR InstName C5
SYMATTR Value 10µ
SYMBOL diode -352 80 M180
WINDOW 0 30 57 Left 2
WINDOW 3 24 0 Left 2
SYMATTR InstName D3
SYMATTR Value PhotoCell
SYMATTR Prefix X
SYMBOL diode -352 176 M180
WINDOW 0 24 72 Left 2
WINDOW 3 24 0 Left 2
SYMATTR InstName D4
SYMATTR Value PhotoCell
SYMATTR Prefix X
SYMBOL cap 528 112 R0
SYMATTR InstName C6
SYMATTR Value 22p
SYMBOL res 896 80 R0
SYMATTR InstName R4
SYMATTR Value 330
TEXT 744 392 Left 2 !.tran 5m
TEXT 264 -144 Bottom 2 ;LTC3105 - 400mA Step-Up DC/DC Converter with Maximum Power Point Control and 250mV Start-Up\n3.3V from Multiple Stacked-Cell Photovoltaic with Source Temperature Tracking\nInput: .6V to 1V     Output1: 3.3V @ 10mA     Output2: 2.2V @ 6mA
TEXT -360 480 Left 2 ;Note:\n  If the simulation model is not found please update with the "Sync Release" command from the "Tools" menu.\n  It remains the customer's responsibility to verify proper and reliable operation in the actual application.\n  Component substitution and printed circuit board layout may significantly affect circuit performance or reliability\n  Contact your local sales representative for assistance. This circuit is distributed to customers only for use with LTC parts\n  Copyright © 2011 Linear Technology Inc. All rights reserved.
TEXT -680 280 Left 2 !.subckt PhotoCell B A\nC1 A B 1n\nV1 N001 B PWL(0 0 1u .5)\nD1 N001 A S2\nR1 A N001 75\n.model S2 D(Ron=.1 Ilimit=5.1 epsilon=.5)\n.ends
TEXT -1440 -24 Left 2 !**************************************\n*      Model Generated by MODPEX     *\n*Copyright(c) Symmetry Design Systems*\n*         All Rights Reserved        *\n*    UNPUBLISHED LICENSED SOFTWARE   *\n*   Contains Proprietary Information *\n*      Which is The Property of      *\n*     SYMMETRY OR ITS LICENSORS      *\n*Commercial Use or Resale Restricted *\n*   by Symmetry License Agreement    *\n**************************************\n* Model generated on Jan 29, 03\n* MODEL FORMAT: SPICE3\n.MODEL mra4003t3 d\n+IS=5.63539e-10 RS=0.0399896 N=1.59812 EG=1.15367\n+XTI=0.5 BV=300 IBV=1e-05 CJO=1.63488e-11\n+VJ=0.4 M=0.215267 FC=0.5 TT=4.43935e-06\n+KF=0 AF=1
TEXT 968 160 Left 2 ;Dummy load
